<?xml version="1.0" encoding="UTF-8"?>

<!-- generated on 2023-01-04 16:44:15 by Eclipse SUMO netedit Version 1.15.0
-->

<routes xmlns:xsi="http://www.w3.org/2001/XMLSchema-instance" xsi:noNamespaceSchemaLocation="http://sumo.dlr.de/xsd/routes_file.xsd">
    <!-- Vehicles, persons and containers (sorted by depart) -->
    <flow id="f_0" begin="0.00" from="E1" to="-E2" end="3600.00" vehsPerHour="3000.00"/>
    <flow id="f_1" begin="0.00" from="E2" to="-E1" end="3600.00" vehsPerHour="3000.00"/>
    <flow id="f_2" begin="0.00" from="-E3" to="-E0" end="3600.00" vehsPerHour="300.00"/>
    <flow id="f_3" begin="0.00" from="E0" to="E3" end="3600.00" vehsPerHour="300.00"/>
</routes>
