<?xml version="1.0" encoding="UTF-8"?>

<!-- generated on 2023-01-04 16:44:10 by Eclipse SUMO netedit Version 1.15.0
<configuration xmlns:xsi="http://www.w3.org/2001/XMLSchema-instance" xsi:noNamespaceSchemaLocation="http://sumo.dlr.de/xsd/netconvertConfiguration.xsd">

    <input>
        <sumo-net-file value="C:\Users\nurha\Documents\study stuff\SEM 7 DEGREE\Fuzzy Logic\traffic light\traffic-light-simulator\traffic.net.xml"/>
    </input>

    <output>
        <output-file value="C:\Users\nurha\Documents\study stuff\SEM 7 DEGREE\Fuzzy Logic\traffic light\traffic-light-simulator\traffic.net.xml"/>
    </output>

    <processing>
        <geometry.min-radius.fix.railways value="false"/>
        <geometry.max-grade.fix value="false"/>
        <offset.disable-normalization value="true"/>
        <lefthand value="0"/>
    </processing>

    <junctions>
        <no-turnarounds value="true"/>
        <junctions.corner-detail value="5"/>
        <junctions.limit-turn-speed value="5.50"/>
        <rectangular-lane-cut value="0"/>
    </junctions>

    <pedestrian>
        <walkingareas value="0"/>
    </pedestrian>

</configuration>
-->

<net version="1.9" junctionCornerDetail="5" limitTurnSpeed="5.50" xmlns:xsi="http://www.w3.org/2001/XMLSchema-instance" xsi:noNamespaceSchemaLocation="http://sumo.dlr.de/xsd/net_file.xsd">

    <location netOffset="0.00,0.00" convBoundary="100.00,0.00,300.00,200.00" origBoundary="-10000000000.00,-10000000000.00,10000000000.00,10000000000.00" projParameter="!"/>

    <edge id=":J3_0" function="internal">
        <lane id=":J3_0_0" index="0" speed="6.51" length="9.03" shape="192.00,113.60 191.65,111.15 190.60,109.40 188.85,108.35 186.40,108.00"/>
    </edge>
    <edge id=":J3_1" function="internal">
        <lane id=":J3_1_0" index="0" speed="13.89" length="27.20" shape="192.00,113.60 192.00,86.40"/>
        <lane id=":J3_1_1" index="1" speed="13.89" length="27.20" shape="195.20,113.60 195.20,86.40"/>
        <lane id=":J3_1_2" index="2" speed="13.89" length="27.20" shape="198.40,113.60 198.40,86.40"/>
    </edge>
    <edge id=":J3_4" function="internal">
        <lane id=":J3_4_0" index="0" speed="10.36" length="5.01" shape="198.40,113.60 199.11,108.64"/>
    </edge>
    <edge id=":J3_20" function="internal">
        <lane id=":J3_20_0" index="0" speed="10.36" length="19.50" shape="199.11,108.64 199.35,106.95 202.20,102.20 206.95,99.35 213.60,98.40"/>
    </edge>
    <edge id=":J3_5" function="internal">
        <lane id=":J3_5_0" index="0" speed="6.51" length="9.03" shape="213.60,108.00 211.15,108.35 209.40,109.40 208.35,111.15 208.00,113.60"/>
    </edge>
    <edge id=":J3_6" function="internal">
        <lane id=":J3_6_0" index="0" speed="13.89" length="27.20" shape="213.60,108.00 186.40,108.00"/>
        <lane id=":J3_6_1" index="1" speed="13.89" length="27.20" shape="213.60,104.80 186.40,104.80"/>
        <lane id=":J3_6_2" index="2" speed="13.89" length="27.20" shape="213.60,101.60 186.40,101.60"/>
    </edge>
    <edge id=":J3_9" function="internal">
        <lane id=":J3_9_0" index="0" speed="10.36" length="5.01" shape="213.60,101.60 208.64,100.89"/>
    </edge>
    <edge id=":J3_21" function="internal">
        <lane id=":J3_21_0" index="0" speed="10.36" length="19.50" shape="208.64,100.89 206.95,100.65 202.20,97.80 199.35,93.05 198.40,86.40"/>
    </edge>
    <edge id=":J3_10" function="internal">
        <lane id=":J3_10_0" index="0" speed="6.51" length="9.03" shape="208.00,86.40 208.35,88.85 209.40,90.60 211.15,91.65 213.60,92.00"/>
    </edge>
    <edge id=":J3_11" function="internal">
        <lane id=":J3_11_0" index="0" speed="13.89" length="27.20" shape="208.00,86.40 208.00,113.60"/>
        <lane id=":J3_11_1" index="1" speed="13.89" length="27.20" shape="204.80,86.40 204.80,113.60"/>
        <lane id=":J3_11_2" index="2" speed="13.89" length="27.20" shape="201.60,86.40 201.60,113.60"/>
    </edge>
    <edge id=":J3_14" function="internal">
        <lane id=":J3_14_0" index="0" speed="10.36" length="5.01" shape="201.60,86.40 200.89,91.36"/>
    </edge>
    <edge id=":J3_22" function="internal">
        <lane id=":J3_22_0" index="0" speed="10.36" length="19.50" shape="200.89,91.36 200.65,93.05 197.80,97.80 193.05,100.65 186.40,101.60"/>
    </edge>
    <edge id=":J3_15" function="internal">
        <lane id=":J3_15_0" index="0" speed="6.51" length="9.03" shape="186.40,92.00 188.85,91.65 190.60,90.60 191.65,88.85 192.00,86.40"/>
    </edge>
    <edge id=":J3_16" function="internal">
        <lane id=":J3_16_0" index="0" speed="13.89" length="27.20" shape="186.40,92.00 213.60,92.00"/>
        <lane id=":J3_16_1" index="1" speed="13.89" length="27.20" shape="186.40,95.20 213.60,95.20"/>
        <lane id=":J3_16_2" index="2" speed="13.89" length="27.20" shape="186.40,98.40 213.60,98.40"/>
    </edge>
    <edge id=":J3_19" function="internal">
        <lane id=":J3_19_0" index="0" speed="10.36" length="5.01" shape="186.40,98.40 191.36,99.11"/>
    </edge>
    <edge id=":J3_23" function="internal">
        <lane id=":J3_23_0" index="0" speed="10.36" length="19.50" shape="191.36,99.11 193.05,99.35 197.80,102.20 200.65,106.95 201.60,113.60"/>
    </edge>

    <edge id="-E0" from="J3" to="J6" priority="-1">
        <lane id="-E0_0" index="0" speed="13.89" length="86.40" shape="208.00,113.60 208.00,200.00"/>
        <lane id="-E0_1" index="1" speed="13.89" length="86.40" shape="204.80,113.60 204.80,200.00"/>
        <lane id="-E0_2" index="2" speed="13.89" length="86.40" shape="201.60,113.60 201.60,200.00"/>
    </edge>
    <edge id="-E1" from="J3" to="J2" priority="-1">
        <lane id="-E1_0" index="0" speed="13.89" length="86.40" shape="186.40,108.00 100.00,108.00"/>
        <lane id="-E1_1" index="1" speed="13.89" length="86.40" shape="186.40,104.80 100.00,104.80"/>
        <lane id="-E1_2" index="2" speed="13.89" length="86.40" shape="186.40,101.60 100.00,101.60"/>
    </edge>
    <edge id="-E2" from="J3" to="J4" priority="-1">
        <lane id="-E2_0" index="0" speed="13.89" length="86.40" shape="213.60,92.00 300.00,92.00"/>
        <lane id="-E2_1" index="1" speed="13.89" length="86.40" shape="213.60,95.20 300.00,95.20"/>
        <lane id="-E2_2" index="2" speed="13.89" length="86.40" shape="213.60,98.40 300.00,98.40"/>
    </edge>
    <edge id="-E3" from="J5" to="J3" priority="-1">
        <lane id="-E3_0" index="0" speed="13.89" length="86.40" shape="208.00,0.00 208.00,86.40"/>
        <lane id="-E3_1" index="1" speed="13.89" length="86.40" shape="204.80,0.00 204.80,86.40"/>
        <lane id="-E3_2" index="2" speed="13.89" length="86.40" shape="201.60,0.00 201.60,86.40"/>
    </edge>
    <edge id="E0" from="J6" to="J3" priority="-1">
        <lane id="E0_0" index="0" speed="13.89" length="86.40" shape="192.00,200.00 192.00,113.60"/>
        <lane id="E0_1" index="1" speed="13.89" length="86.40" shape="195.20,200.00 195.20,113.60"/>
        <lane id="E0_2" index="2" speed="13.89" length="86.40" shape="198.40,200.00 198.40,113.60"/>
    </edge>
    <edge id="E1" from="J2" to="J3" priority="-1">
        <lane id="E1_0" index="0" speed="13.89" length="86.40" shape="100.00,92.00 186.40,92.00"/>
        <lane id="E1_1" index="1" speed="13.89" length="86.40" shape="100.00,95.20 186.40,95.20"/>
        <lane id="E1_2" index="2" speed="13.89" length="86.40" shape="100.00,98.40 186.40,98.40"/>
    </edge>
    <edge id="E2" from="J4" to="J3" priority="-1">
        <lane id="E2_0" index="0" speed="13.89" length="86.40" shape="300.00,108.00 213.60,108.00"/>
        <lane id="E2_1" index="1" speed="13.89" length="86.40" shape="300.00,104.80 213.60,104.80"/>
        <lane id="E2_2" index="2" speed="13.89" length="86.40" shape="300.00,101.60 213.60,101.60"/>
    </edge>
    <edge id="E3" from="J3" to="J5" priority="-1">
        <lane id="E3_0" index="0" speed="13.89" length="86.40" shape="192.00,86.40 192.00,0.00"/>
        <lane id="E3_1" index="1" speed="13.89" length="86.40" shape="195.20,86.40 195.20,0.00"/>
        <lane id="E3_2" index="2" speed="13.89" length="86.40" shape="198.40,86.40 198.40,0.00"/>
    </edge>

    <tlLogic id="J3" type="static" programID="0" offset="0">
        <!-- <phase duration="22.5" state="GGGGgrrrrrGGGGgrrrrr"/> -->
		<phase duration="42" state="GGGGgrrrrrGGGGgrrrrr"/>
        <phase duration="3"  state="yyyyyrrrrryyyyyrrrrr"/>
        <!-- <phase duration="97" state="rrrrrGGGGgrrrrrGGGGg"/> -->
		<phase duration="42" state="rrrrrGGGGgrrrrrGGGGg"/>
        <phase duration="3"  state="rrrrryyyyyrrrrryyyyy"/>
    </tlLogic>

    <junction id="J2" type="dead_end" x="100.00" y="100.00" incLanes="-E1_0 -E1_1 -E1_2" intLanes="" shape="100.00,100.00 100.00,109.60 100.00,100.00"/>
    <junction id="J3" type="traffic_light" x="200.00" y="100.00" incLanes="E0_0 E0_1 E0_2 E2_0 E2_1 E2_2 -E3_0 -E3_1 -E3_2 E1_0 E1_1 E1_2" intLanes=":J3_0_0 :J3_1_0 :J3_1_1 :J3_1_2 :J3_20_0 :J3_5_0 :J3_6_0 :J3_6_1 :J3_6_2 :J3_21_0 :J3_10_0 :J3_11_0 :J3_11_1 :J3_11_2 :J3_22_0 :J3_15_0 :J3_16_0 :J3_16_1 :J3_16_2 :J3_23_0" shape="190.40,113.60 209.60,113.60 210.04,111.38 210.60,110.60 211.38,110.04 212.38,109.71 213.60,109.60 213.60,90.40 211.38,89.96 210.60,89.40 210.04,88.62 209.71,87.62 209.60,86.40 190.40,86.40 189.96,88.62 189.40,89.40 188.62,89.96 187.62,90.29 186.40,90.40 186.40,109.60 188.62,110.04 189.40,110.60 189.96,111.38 190.29,112.38">
        <request index="0"  response="00000000000000000000" foes="00000000000111000000" cont="0"/>
        <request index="1"  response="10000000001000000000" foes="11111100001111000000" cont="0"/>
        <request index="2"  response="10000000001000000000" foes="11111100001111000000" cont="0"/>
        <request index="3"  response="10000000001000000000" foes="11111100001111000000" cont="0"/>
        <request index="4"  response="10000011101000000000" foes="11110011101111000000" cont="1"/>
        <request index="5"  response="00000011100000000000" foes="00000011100000000000" cont="0"/>
        <request index="6"  response="00000111100000011111" foes="10000111100000011111" cont="0"/>
        <request index="7"  response="00000111100000011111" foes="10000111100000011111" cont="0"/>
        <request index="8"  response="00000111100000011111" foes="10000111100000011111" cont="0"/>
        <request index="9"  response="01110111100000011110" foes="01110111100000011110" cont="1"/>
        <request index="10" response="00000000000000000000" foes="01110000000000000000" cont="0"/>
        <request index="11" response="10000000001000000000" foes="11110000001111110000" cont="0"/>
        <request index="12" response="10000000001000000000" foes="11110000001111110000" cont="0"/>
        <request index="13" response="10000000001000000000" foes="11110000001111110000" cont="0"/>
        <request index="14" response="10000000001000001110" foes="11110000001111001110" cont="1"/>
        <request index="15" response="00000000000000001110" foes="00000000000000001110" cont="0"/>
        <request index="16" response="00000111110000011110" foes="00000111111000011110" cont="0"/>
        <request index="17" response="00000111110000011110" foes="00000111111000011110" cont="0"/>
        <request index="18" response="00000111110000011110" foes="00000111111000011110" cont="0"/>
        <request index="19" response="00000111100111011110" foes="00000111100111011110" cont="1"/>
    </junction>
    <junction id="J4" type="dead_end" x="300.00" y="100.00" incLanes="-E2_0 -E2_1 -E2_2" intLanes="" shape="300.00,100.00 300.00,90.40 300.00,100.00"/>
    <junction id="J5" type="dead_end" x="200.00" y="0.00" incLanes="E3_0 E3_1 E3_2" intLanes="" shape="200.00,0.00 190.40,0.00 200.00,0.00"/>
    <junction id="J6" type="dead_end" x="200.00" y="200.00" incLanes="-E0_0 -E0_1 -E0_2" intLanes="" shape="200.00,200.00 209.60,200.00 200.00,200.00"/>

    <junction id=":J3_20_0" type="internal" x="199.11" y="108.64" incLanes=":J3_4_0 -E3_0 -E3_1 -E3_2" intLanes=":J3_6_0 :J3_6_1 :J3_6_2 :J3_9_0 :J3_10_0 :J3_11_0 :J3_11_1 :J3_11_2 :J3_16_0 :J3_16_1 :J3_16_2 :J3_19_0"/>
    <junction id=":J3_21_0" type="internal" x="208.64" y="100.89" incLanes=":J3_9_0 E1_0 E1_1 E1_2" intLanes=":J3_1_0 :J3_1_1 :J3_1_2 :J3_4_0 :J3_11_0 :J3_11_1 :J3_11_2 :J3_14_0 :J3_15_0 :J3_16_0 :J3_16_1 :J3_16_2"/>
    <junction id=":J3_22_0" type="internal" x="200.89" y="91.36" incLanes=":J3_14_0 E0_0 E0_1 E0_2" intLanes=":J3_0_0 :J3_1_0 :J3_1_1 :J3_1_2 :J3_6_0 :J3_6_1 :J3_6_2 :J3_9_0 :J3_16_0 :J3_16_1 :J3_16_2 :J3_19_0"/>
    <junction id=":J3_23_0" type="internal" x="191.36" y="99.11" incLanes=":J3_19_0 E2_0 E2_1 E2_2" intLanes=":J3_1_0 :J3_1_1 :J3_1_2 :J3_4_0 :J3_5_0 :J3_6_0 :J3_6_1 :J3_6_2 :J3_11_0 :J3_11_1 :J3_11_2 :J3_14_0"/>

    <connection from="-E3" to="-E2" fromLane="0" toLane="0" via=":J3_10_0" tl="J3" linkIndex="10" dir="r" state="O"/>
    <connection from="-E3" to="-E0" fromLane="0" toLane="0" via=":J3_11_0" tl="J3" linkIndex="11" dir="s" state="O"/>
    <connection from="-E3" to="-E0" fromLane="1" toLane="1" via=":J3_11_1" tl="J3" linkIndex="12" dir="s" state="O"/>
    <connection from="-E3" to="-E0" fromLane="2" toLane="2" via=":J3_11_2" tl="J3" linkIndex="13" dir="s" state="O"/>
    <connection from="-E3" to="-E1" fromLane="2" toLane="2" via=":J3_14_0" tl="J3" linkIndex="14" dir="l" state="o"/>
    <connection from="E0" to="-E1" fromLane="0" toLane="0" via=":J3_0_0" tl="J3" linkIndex="0" dir="r" state="O"/>
    <connection from="E0" to="E3" fromLane="0" toLane="0" via=":J3_1_0" tl="J3" linkIndex="1" dir="s" state="O"/>
    <connection from="E0" to="E3" fromLane="1" toLane="1" via=":J3_1_1" tl="J3" linkIndex="2" dir="s" state="O"/>
    <connection from="E0" to="E3" fromLane="2" toLane="2" via=":J3_1_2" tl="J3" linkIndex="3" dir="s" state="O"/>
    <connection from="E0" to="-E2" fromLane="2" toLane="2" via=":J3_4_0" tl="J3" linkIndex="4" dir="l" state="o"/>
    <connection from="E1" to="E3" fromLane="0" toLane="0" via=":J3_15_0" tl="J3" linkIndex="15" dir="r" state="o"/>
    <connection from="E1" to="-E2" fromLane="0" toLane="0" via=":J3_16_0" tl="J3" linkIndex="16" dir="s" state="o"/>
    <connection from="E1" to="-E2" fromLane="1" toLane="1" via=":J3_16_1" tl="J3" linkIndex="17" dir="s" state="o"/>
    <connection from="E1" to="-E2" fromLane="2" toLane="2" via=":J3_16_2" tl="J3" linkIndex="18" dir="s" state="o"/>
    <connection from="E1" to="-E0" fromLane="2" toLane="2" via=":J3_19_0" tl="J3" linkIndex="19" dir="l" state="o"/>
    <connection from="E2" to="-E0" fromLane="0" toLane="0" via=":J3_5_0" tl="J3" linkIndex="5" dir="r" state="o"/>
    <connection from="E2" to="-E1" fromLane="0" toLane="0" via=":J3_6_0" tl="J3" linkIndex="6" dir="s" state="o"/>
    <connection from="E2" to="-E1" fromLane="1" toLane="1" via=":J3_6_1" tl="J3" linkIndex="7" dir="s" state="o"/>
    <connection from="E2" to="-E1" fromLane="2" toLane="2" via=":J3_6_2" tl="J3" linkIndex="8" dir="s" state="o"/>
    <connection from="E2" to="E3" fromLane="2" toLane="2" via=":J3_9_0" tl="J3" linkIndex="9" dir="l" state="o"/>

    <connection from=":J3_0" to="-E1" fromLane="0" toLane="0" dir="r" state="M"/>
    <connection from=":J3_1" to="E3" fromLane="0" toLane="0" dir="s" state="M"/>
    <connection from=":J3_1" to="E3" fromLane="1" toLane="1" dir="s" state="M"/>
    <connection from=":J3_1" to="E3" fromLane="2" toLane="2" dir="s" state="M"/>
    <connection from=":J3_4" to="-E2" fromLane="0" toLane="2" via=":J3_20_0" dir="l" state="m"/>
    <connection from=":J3_20" to="-E2" fromLane="0" toLane="2" dir="l" state="M"/>
    <connection from=":J3_5" to="-E0" fromLane="0" toLane="0" dir="r" state="M"/>
    <connection from=":J3_6" to="-E1" fromLane="0" toLane="0" dir="s" state="M"/>
    <connection from=":J3_6" to="-E1" fromLane="1" toLane="1" dir="s" state="M"/>
    <connection from=":J3_6" to="-E1" fromLane="2" toLane="2" dir="s" state="M"/>
    <connection from=":J3_9" to="E3" fromLane="0" toLane="2" via=":J3_21_0" dir="l" state="m"/>
    <connection from=":J3_21" to="E3" fromLane="0" toLane="2" dir="l" state="M"/>
    <connection from=":J3_10" to="-E2" fromLane="0" toLane="0" dir="r" state="M"/>
    <connection from=":J3_11" to="-E0" fromLane="0" toLane="0" dir="s" state="M"/>
    <connection from=":J3_11" to="-E0" fromLane="1" toLane="1" dir="s" state="M"/>
    <connection from=":J3_11" to="-E0" fromLane="2" toLane="2" dir="s" state="M"/>
    <connection from=":J3_14" to="-E1" fromLane="0" toLane="2" via=":J3_22_0" dir="l" state="m"/>
    <connection from=":J3_22" to="-E1" fromLane="0" toLane="2" dir="l" state="M"/>
    <connection from=":J3_15" to="E3" fromLane="0" toLane="0" dir="r" state="M"/>
    <connection from=":J3_16" to="-E2" fromLane="0" toLane="0" dir="s" state="M"/>
    <connection from=":J3_16" to="-E2" fromLane="1" toLane="1" dir="s" state="M"/>
    <connection from=":J3_16" to="-E2" fromLane="2" toLane="2" dir="s" state="M"/>
    <connection from=":J3_19" to="-E0" fromLane="0" toLane="2" via=":J3_23_0" dir="l" state="m"/>
    <connection from=":J3_23" to="-E0" fromLane="0" toLane="2" dir="l" state="M"/>

</net>
