<?xml version="1.0" encoding="UTF-8"?>

<!-- generated on 2022-12-31 21:48:51 by Eclipse SUMO GUI Version 1.15.0
-->

<configuration xmlns:xsi="http://www.w3.org/2001/XMLSchema-instance" xsi:noNamespaceSchemaLocation="http://sumo.dlr.de/xsd/sumoConfiguration.xsd">

    <input>
        <net-file value="../../../../../study%20stuff/SEM%207%20DEGREE/Fuzzy%20Logic/traffic%20light/traffic-light-simulator/traffic.net.xml"/>
        <route-files value="../../../../../study%20stuff/SEM%207%20DEGREE/Fuzzy%20Logic/traffic%20light/traffic-light-simulator/demand.rou.xml"/>
    </input>

</configuration>
